BEGIN BULK
GRID,1
GRID,2,,100.0
GRID,3,,200.0
GRID,4,,300.0
GRID,5,,400.0
GRID,6,,500.0
GRID,7,,600.0
GRID,8,,700.0
GRID,9,,800.0
GRID,10,,900.0
GRID,11,,1000.0
CBEAM,1,1,1,2,,1.0
CBEAM,2,1,2,3,,1.0
CBEAM,3,1,3,4,,1.0
CBEAM,4,1,4,5,,1.0
CBEAM,5,1,5,6,,1.0
CBEAM,6,1,6,7,,1.0
CBEAM,7,1,7,8,,1.0
CBEAM,8,1,8,9,,1.0
CBEAM,9,1,9,10,,1.0
CBEAM,10,1,10,11,,1.0
PBEAML,1,1,MSCBML0,L,,,,,100.0,200.0,20.0,10.0,,YES,1.0,100.0,200.0,20.0,10.0
MAT1,1,200000000,76923076.92,0.3,0.00000785,0.00001728
FORCE,1,11,,10000000.0,,1.0
SPC,,1,123456,0.0
ENDDATA
