$* Rectangular plate Lx=1.4 Ly=1 Nx=28 Ny=20
BEGIN BULK
GRID,1,,0,0
GRID,2,,0.05,0
GRID,3,,0.1,0
GRID,4,,0.15,0
GRID,5,,0.2,0
GRID,6,,0.25,0
GRID,7,,0.3,0
GRID,8,,0.35,0
GRID,9,,0.4,0
GRID,10,,0.45,0
GRID,11,,0.5,0
GRID,12,,0.55,0
GRID,13,,0.6,0
GRID,14,,0.65,0
GRID,15,,0.7,0
GRID,16,,0.75,0
GRID,17,,0.8,0
GRID,18,,0.85,0
GRID,19,,0.9,0
GRID,20,,0.95,0
$ ... 589 like lines cut
CQUAD4,1,1,1,2,31,30
CQUAD4,2,1,2,3,32,31
CQUAD4,3,1,3,4,33,32
CQUAD4,4,1,4,5,34,33
CQUAD4,5,1,5,6,35,34
CQUAD4,6,1,6,7,36,35
CQUAD4,7,1,7,8,37,36
CQUAD4,8,1,8,9,38,37
CQUAD4,9,1,9,10,39,38
CQUAD4,10,1,10,11,40,39
CQUAD4,11,1,11,12,41,40
CQUAD4,12,1,12,13,42,41
CQUAD4,13,1,13,14,43,42
CQUAD4,14,1,14,15,44,43
CQUAD4,15,1,15,16,45,44
CQUAD4,16,1,16,17,46,45
CQUAD4,17,1,17,18,47,46
CQUAD4,18,1,18,19,48,47
CQUAD4,19,1,19,20,49,48
CQUAD4,20,1,20,21,50,49
$ ... 540 like lines cut
PSHELL,1,1,0.1
MAT1,1,2e+11,8e+09,0.3,5000
SPC1,1,123,1,THRU,29
SPC1,1,123,581,THRU,609
SPC1,1,123,30,59,88,117,146,175,204,233,262,291,320,349,378,407,436,465,494,523,552
SPC1,1,123,58,87,116,145,174,203,232,261,290,319,348,377,406,435,464,493,522,551,580
END DATA
