BEGIN BULK
GRID,1,,0.0,0.0
GRID,2,,0.0,1.0
GRID,3,,1.0,0.0
GRID,4,,1.0,1.0
GRID,5,,2.0,0.0
GRID,6,,2.0,1.0
CQUAD4,1,1,1,2,4,3
CTRIA3,2,1,3,4,5
CTRIA3,3,1,6,5,4
PSHELL,1,1,0.02
PLOAD4,1,1,1.0e3,,,,THRU,3
MAT1,1,2.0e11,8.0e9,0.3,5000
SPC1,1,123,1,2,5,6
ENDDATA
