BEGIN BULK
GRID,1,,0.0,0.0
GRID,2,,0.0,1.0
GRID,3,,1.0,0.0
GRID,4,,1.0,1.0
GRID,5,,2.0,0.0
GRID,6,,2.0,1.0
GRID,7,,3.0,0.5
CQUAD4,1,1,1,2,4,3
CQUAD4,2,1,3,4,6,5
CTRIA3,5,1,5,6,7
CBEAM,3,2,5,7
CBEAM,4,2,6,7
PSHELL,1,1,0.2
PBEAML,1,1,MSCBML0,L,,,,,0.1,0.4,0.018,0.013,,YES,1.0,0.1,0.4,0.018,0.013
PBEAML,2,1,MSCBML0,BAR,,,,,0.05,0.1,,YES,1.0,0.05,0.1
MAT1,1,2.0e11,8.0e9,0.3,5000
ASET1,1,1,2
ENDDATA
