BEGIN BULK
GRID,1,,0.0,0.0
GRID,2,,0.0,1.0
GRID,3,,1.0,0.0
GRID,4,,1.0,1.0
GRID,5,,2.0,0.0
GRID,6,,2.0,1.0
GRID,7,,3.0,0.5
GRID,8,,2.0,0.5,0.5
CQUAD4,1,1,1,2,4,3
CQUAD4,2,1,3,4,6,5
CBEAM,3,1,5,7
CBEAM,4,1,6,7
CONM2,5,8,,500.0
RBE3,6,,8,123456,1.0,123,5,6
PSHELL,1,1,0.2
PBEAML,1,1,MSCBML0,L,,,,,0.1,0.4,0.018,0.013,,YES,1.0,0.1,0.4,0.018,0.013
MAT1,1,2.0e11,8.0e9,0.3,5000
FORCE,1,7,,500000.0,,,1.0
ASET1,1,1,2
ENDDATA
