BEGIN BULK
GRID,1
GRID,2,,1
GRID,3,,1,1
GRID,4,,0,1
GRID,5,,0,0,1
GRID,6,,1,0,1
GRID,7,,1,1,1
GRID,8,,0,1,1
CQUAD4,1,1,1,4,3,2
CQUAD4,2,1,1,2,6,5
CQUAD4,3,1,2,3,7,6
CQUAD4,4,1,3,4,8,7
CQUAD4,5,1,4,1,5,8
CQUAD4,6,1,5,6,7,8
PSHELL,1,1,0.01
MAT1,1,21E10,,0.3,7800
ENDDATA
