$* Bicycle wheel Ri=1 Ro=1.5 nC=10 nR=2
BEGIN BULK
GRID,1,,1,0
GRID,2,,0.809017,0.587785
GRID,3,,0.309017,0.951057
GRID,4,,-0.309017,0.951057
GRID,5,,-0.809017,0.587785
GRID,6,,-1,1.22465e-16
GRID,7,,-0.809017,-0.587785
GRID,8,,-0.309017,-0.951057
GRID,9,,0.309017,-0.951057
GRID,10,,0.809017,-0.587785
GRID,11,,1.25,0
GRID,12,,1.01127,0.734732
GRID,13,,0.386271,1.18882
GRID,14,,-0.386271,1.18882
GRID,15,,-1.01127,0.734732
GRID,16,,-1.25,1.53081e-16
GRID,17,,-1.01127,-0.734732
GRID,18,,-0.386271,-1.18882
GRID,19,,0.386271,-1.18882
GRID,20,,1.01127,-0.734732
$ ... 11 like lines cut
CQUAD4,1,1,1,2,12,11
CQUAD4,2,1,2,3,13,12
CQUAD4,3,1,3,4,14,13
CQUAD4,4,1,4,5,15,14
CQUAD4,5,1,5,6,16,15
CQUAD4,6,1,6,7,17,16
CQUAD4,7,1,7,8,18,17
CQUAD4,8,1,8,9,19,18
CQUAD4,9,1,9,10,20,19
CQUAD4,10,1,10,1,11,20
CQUAD4,11,1,11,12,22,21
CQUAD4,12,1,12,13,23,22
CQUAD4,13,1,13,14,24,23
CQUAD4,14,1,14,15,25,24
CQUAD4,15,1,15,16,26,25
CQUAD4,16,1,16,17,27,26
CQUAD4,17,1,17,18,28,27
CQUAD4,18,1,18,19,29,28
CQUAD4,19,1,19,20,30,29
CQUAD4,20,1,20,11,21,30
CONM2,21,31,,10.0
RBE2,22,31,123456,1,2,3,4,5,6,7,8,9,10
PSHELL,1,1,0.1
MAT1,1,2e+11,8e+09,0.3,5000
END DATA
